[General]
network = dissertationsim.simulations.regionalbackbone.RegionalBackbone
sim-time-limit = 60s
output-scalar-file = ../../results/regionalbackbone/eval/${configname}-${runnumber}.sca
output-vector-file = ../../results/regionalbackbone/eval/${configname}-${runnumber}.vec
eventlog-file = ../../results/regionalbackbone/debug/${configname}-${runnumber}.elog
record-eventlog = false

**.ospf.ospfConfig = xmldoc("ASConfig.xml")
# OSPF remains the normal INET OSPFv2 reference. ASConfig.xml now makes the
# baseline timer assumptions explicit for readability (hello=10s, dead=40s,
# retransmission=5s, interfaceTransmissionDelay=1s); fast detection is still
# represented only by the project-local BFD-like comparator inside
# AiMrceController.
**.scenarioManager.script = xml("<script/>")
*.enableDegradationController = false
*.enableCoreBottleneck = false
*.enableCostAwareBackupPenalty = false
*.enableAiMrceController = false

**.hostA.numApps = 1
**.hostB.numApps = 1

**.hostA.app[0].typename = "UdpBasicApp"
**.hostA.app[0].destAddresses = "hostB"
**.hostA.app[0].destPort = 5000
**.hostA.app[0].messageLength = 512B
**.hostA.app[0].sendInterval = 1s
**.hostA.app[0].startTime = 20s

**.hostB.app[0].typename = "UdpSink"
**.hostB.app[0].localPort = 5000

**.hostA.app[0].packetSent.result-recording-modes = count
**.hostB.app[0].packetReceived.result-recording-modes = count
**.hostB.app[0].throughput.result-recording-modes = vector
**.hostB.app[0].endToEndDelay.result-recording-modes = vector
**.hostB.app[0].rcvdPkSeqNo.result-recording-modes = vector
**.ipv4.ip.packetDropNoRouteFound.result-recording-modes = count
**.ipv4.ip.packetDropInterfaceDown.result-recording-modes = count

[Config RegionalBackboneCongestionDegradation]
description = "Runtime-model training/export baseline: staged UDP load on the 10 Mbps coreNW-coreNE bottleneck with hard failure at 125s"
sim-time-limit = 150s
*.enableCoreBottleneck = true

**.hostA.numApps = 7
**.hostB.numApps = 7
**.hostA.app[*].typename = "UdpBasicApp"
**.hostA.app[*].destAddresses = "hostB"
**.hostB.app[*].typename = "UdpSink"

# Probe flow used by AI-MRCE runtime features and receiver-side diagnostics.
**.hostA.app[0].destPort = 5000
**.hostA.app[0].messageLength = 256B
**.hostA.app[0].sendInterval = 10ms
**.hostA.app[0].startTime = 20s

# Staged bulk flows. Each is about 2.4 Mbps, so aggregate demand crosses the
# 10 Mbps bottleneck gradually before the hard failure.
**.hostA.app[1].destPort = 5001
**.hostA.app[1].messageLength = 1200B
**.hostA.app[1].sendInterval = 4ms
**.hostA.app[1].startTime = 35s

**.hostA.app[2].destPort = 5002
**.hostA.app[2].messageLength = 1200B
**.hostA.app[2].sendInterval = 4ms
**.hostA.app[2].startTime = 50s

**.hostA.app[3].destPort = 5003
**.hostA.app[3].messageLength = 1200B
**.hostA.app[3].sendInterval = 4ms
**.hostA.app[3].startTime = 65s

**.hostA.app[4].destPort = 5004
**.hostA.app[4].messageLength = 1200B
**.hostA.app[4].sendInterval = 4ms
**.hostA.app[4].startTime = 80s

**.hostA.app[5].destPort = 5005
**.hostA.app[5].messageLength = 1200B
**.hostA.app[5].sendInterval = 4ms
**.hostA.app[5].startTime = 95s

**.hostA.app[6].destPort = 5006
**.hostA.app[6].messageLength = 1200B
**.hostA.app[6].sendInterval = 4ms
**.hostA.app[6].startTime = 110s

**.hostB.app[0].localPort = 5000
**.hostB.app[1].localPort = 5001
**.hostB.app[2].localPort = 5002
**.hostB.app[3].localPort = 5003
**.hostB.app[4].localPort = 5004
**.hostB.app[5].localPort = 5005
**.hostB.app[6].localPort = 5006

**.scenarioManager.script = xml( \
        "<script>\n" + \
        "<at t='125s'><disconnect src-module='coreNW' src-gate='ethg$o[1]'/></at>\n" + \
        "<at t='125s'><disconnect src-module='coreNE' src-gate='ethg$o[0]'/></at>\n" + \
        "</script>")

**.hostA.app[*].packetSent.result-recording-modes = count
**.hostB.app[*].packetReceived.result-recording-modes = count
**.hostB.app[*].throughput.result-recording-modes = vector
**.hostB.app[*].endToEndDelay.result-recording-modes = vector
**.hostB.app[*].rcvdPkSeqNo.result-recording-modes = vector

# Queue metrics on the forward preferred bottleneck interface coreNW -> coreNE.
**.coreNW.eth[1].queue.queueLength.result-recording-modes = vector
**.coreNW.eth[1].queue.queueBitLength.result-recording-modes = vector
**.coreNW.eth[1].queue.queueingTime.result-recording-modes = vector

[Config RegionalBackboneFailureDegradedLinkBase]
extends = RegionalBackboneCongestionDegradation
description = "Active degraded-link model-family base: staged UDP load plus deterministic progressive protected-span brownout before the same hard failure"
*.enableDegradationController = true
**.degradationController.firstInterfaceModule = "^.coreNW.eth[1]"
**.degradationController.secondInterfaceModule = "^.coreNE.eth[0]"
**.degradationController.profile = "stagedRealistic"
**.degradationController.startTime = 105s
**.degradationController.endTime = 124s
**.degradationController.updateInterval = 300ms
**.degradationController.targetDelay = 45ms
**.degradationController.targetPacketErrorRate = 0.95
**.degradationController.appliedDelay.result-recording-modes = vector
**.degradationController.appliedPacketErrorRate.result-recording-modes = vector
output-scalar-file = ../../results/regionalbackbone/failure_detection_degraded_link_model_family/${configname}-${runnumber}.sca
output-vector-file = ../../results/regionalbackbone/failure_detection_degraded_link_model_family/${configname}-${runnumber}.vec
eventlog-file = ../../results/regionalbackbone/failure_detection_degraded_link_model_family_debug/${configname}-${runnumber}.elog
record-eventlog = false

[Config RegionalBackboneFailureDegradedLinkRepairRouteBase]
extends = RegionalBackboneFailureDegradedLinkBase
description = "Active repair-route base: project-local FRR-like static /32 repair-route activation on the southern backup corridor"
*.enableAiMrceController = true
**.aiMrceController.protectedQueueModule = "^.coreNW.eth[1].queue"
**.aiMrceController.probeReceiverModule = "^.hostB.app[0]"
**.aiMrceController.protectionAction = "localRepairStaticRoutes"
**.aiMrceController.localRepairRouteMetric = 1
**.aiMrceController.localRepairRouteSpecs = "^.accessA,^.accessA.eth[2],^.west2.eth[0],^.hostB.eth[0];^.west2,^.west2.eth[1],^.coreSW.eth[0],^.hostB.eth[0];^.coreSW,^.coreSW.eth[1],^.coreSE.eth[0],^.hostB.eth[0];^.coreSE,^.coreSE.eth[3],^.east2.eth[0],^.hostB.eth[0];^.east2,^.east2.eth[1],^.accessB.eth[1],^.hostB.eth[0];^.accessB,^.accessB.eth[1],^.east2.eth[1],^.hostA.eth[0];^.east2,^.east2.eth[0],^.coreSE.eth[3],^.hostA.eth[0];^.coreSE,^.coreSE.eth[0],^.coreSW.eth[1],^.hostA.eth[0];^.coreSW,^.coreSW.eth[0],^.west2.eth[1],^.hostA.eth[0];^.west2,^.west2.eth[0],^.accessA.eth[2],^.hostA.eth[0]"
**.aiMrceController.firstInterfaceModule = "^.coreNW.eth[1]"
**.aiMrceController.secondInterfaceModule = "^.coreNE.eth[0]"
**.aiMrceController.decisionMode = "ruleBased"
**.aiMrceController.startTime = 20s
**.aiMrceController.evaluationInterval = 1s
**.aiMrceController.activationConsecutiveCycles = 3
**.aiMrceController.probeSendInterval = 10ms
**.aiMrceController.probePacketLength = 256B
**.aiMrceController.queueLengthThresholdPk = 40
**.aiMrceController.delayThreshold = 20ms
**.aiMrceController.throughputFloorRatio = 0.85
**.aiMrceController.packetCountFloorRatio = 0.85
**.aiMrceController.ruleRiskThreshold = 0.60
**.aiMrceController.enableAimrceDecision = true
**.aiMrceController.enableBfdLikeDetection = false
**.aiMrceController.hardFailureTime = 125s

[Config RegionalBackboneFailureDegradedLinkOspfOnly]
extends = RegionalBackboneFailureDegradedLinkBase
description = "Degraded-link model-family comparison: OSPF-only reactive baseline"

[Config RegionalBackboneFailureDegradedLinkBfdLikeFrr]
extends = RegionalBackboneFailureDegradedLinkRepairRouteBase
description = "Degraded-link model-family comparison: project-local BFD-like reactive detector plus FRR-like repair routes"
**.aiMrceController.enableAimrceDecision = false
**.aiMrceController.enableBfdLikeDetection = true
**.aiMrceController.bfdLikeStartTime = 20s
**.aiMrceController.bfdLikeDetectionInterval = 300ms
**.aiMrceController.bfdLikeDetectMultiplier = 3
**.aiMrceController.bfdLikeExpectedProbeCount = 1
**.aiMrceController.bfdLikeUseModeledProbeLoss = true

[Config RegionalBackboneFailureDegradedLinkAiMrceRuleBased]
extends = RegionalBackboneFailureDegradedLinkRepairRouteBase
description = "Degraded-link model-family comparison: rule-based AI-MRCE proactive trigger plus FRR-like repair routes"
**.aiMrceController.decisionMode = "ruleBased"

[Config RegionalBackboneFailureDegradedLinkAiMrceLogReg]
extends = RegionalBackboneFailureDegradedLinkAiMrceRuleBased
description = "Degraded-link model-family comparison: logistic-regression AI-MRCE runtime model plus FRR-like repair routes"
**.aiMrceController.decisionMode = "logisticRegression"
**.aiMrceController.runtimeModelFile = "aimrce_runtime_logreg.csv"

[Config RegionalBackboneFailureDegradedLinkAiMrceLinearSvm]
extends = RegionalBackboneFailureDegradedLinkAiMrceRuleBased
description = "Degraded-link model-family comparison: linear-SVM AI-MRCE runtime model plus FRR-like repair routes"
**.aiMrceController.decisionMode = "linearSvm"
**.aiMrceController.runtimeModelFile = "aimrce_runtime_linsvm.csv"

[Config RegionalBackboneFailureDegradedLinkAiMrceShallowTree]
extends = RegionalBackboneFailureDegradedLinkAiMrceRuleBased
description = "Degraded-link model-family comparison: shallow-tree AI-MRCE runtime model plus FRR-like repair routes"
**.aiMrceController.decisionMode = "shallowTree"
**.aiMrceController.runtimeModelFile = "aimrce_runtime_shallow_tree.csv"

[Config RegionalBackboneFailureDegradedLinkHybrid]
extends = RegionalBackboneFailureDegradedLinkAiMrceRuleBased
description = "Degraded-link model-family comparison: hybrid BFD-like safety net with default rule-based AI-MRCE; first trigger wins"
**.aiMrceController.enableBfdLikeDetection = true
**.aiMrceController.bfdLikeStartTime = 20s
**.aiMrceController.bfdLikeDetectionInterval = 300ms
**.aiMrceController.bfdLikeDetectMultiplier = 3
**.aiMrceController.bfdLikeExpectedProbeCount = 1
**.aiMrceController.bfdLikeUseModeledProbeLoss = true

[Config RegionalBackboneFailureDegradedLinkOspfOnlyCohort]
extends = RegionalBackboneFailureDegradedLinkOspfOnly
description = "Five-run OSPF-only wrapper for the degraded-link model-family comparison cohort"
repeat = 5
seed-set = ${repetition}

[Config RegionalBackboneFailureDegradedLinkBfdLikeFrrCohort]
extends = RegionalBackboneFailureDegradedLinkBfdLikeFrr
description = "Five-run BFD-like + FRR wrapper for the degraded-link model-family comparison cohort"
repeat = 5
seed-set = ${repetition}

[Config RegionalBackboneFailureDegradedLinkAiMrceRuleBasedCohort]
extends = RegionalBackboneFailureDegradedLinkAiMrceRuleBased
description = "Five-run rule-based AI-MRCE wrapper for the degraded-link model-family comparison cohort"
repeat = 5
seed-set = ${repetition}

[Config RegionalBackboneFailureDegradedLinkAiMrceLogRegCohort]
extends = RegionalBackboneFailureDegradedLinkAiMrceLogReg
description = "Five-run logistic-regression AI-MRCE wrapper for the degraded-link model-family comparison cohort"
repeat = 5
seed-set = ${repetition}

[Config RegionalBackboneFailureDegradedLinkAiMrceLinearSvmCohort]
extends = RegionalBackboneFailureDegradedLinkAiMrceLinearSvm
description = "Five-run linear-SVM AI-MRCE wrapper for the degraded-link model-family comparison cohort"
repeat = 5
seed-set = ${repetition}

[Config RegionalBackboneFailureDegradedLinkAiMrceShallowTreeCohort]
extends = RegionalBackboneFailureDegradedLinkAiMrceShallowTree
description = "Five-run shallow-tree AI-MRCE wrapper for the degraded-link model-family comparison cohort"
repeat = 5
seed-set = ${repetition}

[Config RegionalBackboneFailureDegradedLinkHybridCohort]
extends = RegionalBackboneFailureDegradedLinkHybrid
description = "Five-run hybrid BFD-like + default AI-MRCE wrapper for the degraded-link model-family comparison cohort"
repeat = 5
seed-set = ${repetition}

# Modular degradation-sensitivity cohort. These configs intentionally reuse the
# same topology, traffic, AI-MRCE thresholds, BFD-like settings, and FRR-like
# repair-route semantics as the validated model-family cohort. Only the
# progressive brownout profile parameters and output directory differ.
[Config RegionalBackboneSensitivityMildSlowOspfOnly]
extends = RegionalBackboneFailureDegradedLinkOspfOnly
description = "Sensitivity profile mild_slow: OSPF-only baseline with longer, milder protected-span brownout"
**.degradationController.startTime = 90s
**.degradationController.endTime = 124s
**.degradationController.targetDelay = 25ms
**.degradationController.targetPacketErrorRate = 0.35
output-scalar-file = ../../results/regionalbackbone/failure_detection_degradation_sensitivity/${configname}-${runnumber}.sca
output-vector-file = ../../results/regionalbackbone/failure_detection_degradation_sensitivity/${configname}-${runnumber}.vec
eventlog-file = ../../results/regionalbackbone/failure_detection_degradation_sensitivity_debug/${configname}-${runnumber}.elog

[Config RegionalBackboneSensitivityMildSlowBfdLikeFrr]
extends = RegionalBackboneFailureDegradedLinkBfdLikeFrr
description = "Sensitivity profile mild_slow: BFD-like reactive comparator plus FRR-like repair routes"
**.degradationController.startTime = 90s
**.degradationController.endTime = 124s
**.degradationController.targetDelay = 25ms
**.degradationController.targetPacketErrorRate = 0.35
output-scalar-file = ../../results/regionalbackbone/failure_detection_degradation_sensitivity/${configname}-${runnumber}.sca
output-vector-file = ../../results/regionalbackbone/failure_detection_degradation_sensitivity/${configname}-${runnumber}.vec
eventlog-file = ../../results/regionalbackbone/failure_detection_degradation_sensitivity_debug/${configname}-${runnumber}.elog

[Config RegionalBackboneSensitivityMildSlowAiMrceRuleBased]
extends = RegionalBackboneFailureDegradedLinkAiMrceRuleBased
description = "Sensitivity profile mild_slow: rule-based AI-MRCE proactive trigger plus FRR-like repair routes"
**.degradationController.startTime = 90s
**.degradationController.endTime = 124s
**.degradationController.targetDelay = 25ms
**.degradationController.targetPacketErrorRate = 0.35
output-scalar-file = ../../results/regionalbackbone/failure_detection_degradation_sensitivity/${configname}-${runnumber}.sca
output-vector-file = ../../results/regionalbackbone/failure_detection_degradation_sensitivity/${configname}-${runnumber}.vec
eventlog-file = ../../results/regionalbackbone/failure_detection_degradation_sensitivity_debug/${configname}-${runnumber}.elog

[Config RegionalBackboneSensitivityMildSlowAiMrceLogReg]
extends = RegionalBackboneFailureDegradedLinkAiMrceLogReg
description = "Sensitivity profile mild_slow: logistic-regression AI-MRCE runtime policy plus FRR-like repair routes"
**.degradationController.startTime = 90s
**.degradationController.endTime = 124s
**.degradationController.targetDelay = 25ms
**.degradationController.targetPacketErrorRate = 0.35
output-scalar-file = ../../results/regionalbackbone/failure_detection_degradation_sensitivity/${configname}-${runnumber}.sca
output-vector-file = ../../results/regionalbackbone/failure_detection_degradation_sensitivity/${configname}-${runnumber}.vec
eventlog-file = ../../results/regionalbackbone/failure_detection_degradation_sensitivity_debug/${configname}-${runnumber}.elog

[Config RegionalBackboneSensitivityMildSlowAiMrceLinearSvm]
extends = RegionalBackboneFailureDegradedLinkAiMrceLinearSvm
description = "Sensitivity profile mild_slow: linear-SVM AI-MRCE runtime policy plus FRR-like repair routes"
**.degradationController.startTime = 90s
**.degradationController.endTime = 124s
**.degradationController.targetDelay = 25ms
**.degradationController.targetPacketErrorRate = 0.35
output-scalar-file = ../../results/regionalbackbone/failure_detection_degradation_sensitivity/${configname}-${runnumber}.sca
output-vector-file = ../../results/regionalbackbone/failure_detection_degradation_sensitivity/${configname}-${runnumber}.vec
eventlog-file = ../../results/regionalbackbone/failure_detection_degradation_sensitivity_debug/${configname}-${runnumber}.elog

[Config RegionalBackboneSensitivityMildSlowAiMrceShallowTree]
extends = RegionalBackboneFailureDegradedLinkAiMrceShallowTree
description = "Sensitivity profile mild_slow: shallow-tree AI-MRCE runtime policy plus FRR-like repair routes"
**.degradationController.startTime = 90s
**.degradationController.endTime = 124s
**.degradationController.targetDelay = 25ms
**.degradationController.targetPacketErrorRate = 0.35
output-scalar-file = ../../results/regionalbackbone/failure_detection_degradation_sensitivity/${configname}-${runnumber}.sca
output-vector-file = ../../results/regionalbackbone/failure_detection_degradation_sensitivity/${configname}-${runnumber}.vec
eventlog-file = ../../results/regionalbackbone/failure_detection_degradation_sensitivity_debug/${configname}-${runnumber}.elog

[Config RegionalBackboneSensitivityMildSlowHybrid]
extends = RegionalBackboneFailureDegradedLinkHybrid
description = "Sensitivity profile mild_slow: hybrid BFD-like safety net with default rule-based AI-MRCE"
**.degradationController.startTime = 90s
**.degradationController.endTime = 124s
**.degradationController.targetDelay = 25ms
**.degradationController.targetPacketErrorRate = 0.35
output-scalar-file = ../../results/regionalbackbone/failure_detection_degradation_sensitivity/${configname}-${runnumber}.sca
output-vector-file = ../../results/regionalbackbone/failure_detection_degradation_sensitivity/${configname}-${runnumber}.vec
eventlog-file = ../../results/regionalbackbone/failure_detection_degradation_sensitivity_debug/${configname}-${runnumber}.elog

[Config RegionalBackboneSensitivityModerateOspfOnly]
extends = RegionalBackboneFailureDegradedLinkOspfOnly
description = "Sensitivity profile moderate: OSPF-only baseline with intermediate protected-span brownout"
**.degradationController.startTime = 100s
**.degradationController.endTime = 124s
**.degradationController.targetDelay = 35ms
**.degradationController.targetPacketErrorRate = 0.65
output-scalar-file = ../../results/regionalbackbone/failure_detection_degradation_sensitivity/${configname}-${runnumber}.sca
output-vector-file = ../../results/regionalbackbone/failure_detection_degradation_sensitivity/${configname}-${runnumber}.vec
eventlog-file = ../../results/regionalbackbone/failure_detection_degradation_sensitivity_debug/${configname}-${runnumber}.elog

[Config RegionalBackboneSensitivityModerateBfdLikeFrr]
extends = RegionalBackboneFailureDegradedLinkBfdLikeFrr
description = "Sensitivity profile moderate: BFD-like reactive comparator plus FRR-like repair routes"
**.degradationController.startTime = 100s
**.degradationController.endTime = 124s
**.degradationController.targetDelay = 35ms
**.degradationController.targetPacketErrorRate = 0.65
output-scalar-file = ../../results/regionalbackbone/failure_detection_degradation_sensitivity/${configname}-${runnumber}.sca
output-vector-file = ../../results/regionalbackbone/failure_detection_degradation_sensitivity/${configname}-${runnumber}.vec
eventlog-file = ../../results/regionalbackbone/failure_detection_degradation_sensitivity_debug/${configname}-${runnumber}.elog

[Config RegionalBackboneSensitivityModerateAiMrceRuleBased]
extends = RegionalBackboneFailureDegradedLinkAiMrceRuleBased
description = "Sensitivity profile moderate: rule-based AI-MRCE proactive trigger plus FRR-like repair routes"
**.degradationController.startTime = 100s
**.degradationController.endTime = 124s
**.degradationController.targetDelay = 35ms
**.degradationController.targetPacketErrorRate = 0.65
output-scalar-file = ../../results/regionalbackbone/failure_detection_degradation_sensitivity/${configname}-${runnumber}.sca
output-vector-file = ../../results/regionalbackbone/failure_detection_degradation_sensitivity/${configname}-${runnumber}.vec
eventlog-file = ../../results/regionalbackbone/failure_detection_degradation_sensitivity_debug/${configname}-${runnumber}.elog

[Config RegionalBackboneSensitivityModerateAiMrceLogReg]
extends = RegionalBackboneFailureDegradedLinkAiMrceLogReg
description = "Sensitivity profile moderate: logistic-regression AI-MRCE runtime policy plus FRR-like repair routes"
**.degradationController.startTime = 100s
**.degradationController.endTime = 124s
**.degradationController.targetDelay = 35ms
**.degradationController.targetPacketErrorRate = 0.65
output-scalar-file = ../../results/regionalbackbone/failure_detection_degradation_sensitivity/${configname}-${runnumber}.sca
output-vector-file = ../../results/regionalbackbone/failure_detection_degradation_sensitivity/${configname}-${runnumber}.vec
eventlog-file = ../../results/regionalbackbone/failure_detection_degradation_sensitivity_debug/${configname}-${runnumber}.elog

[Config RegionalBackboneSensitivityModerateAiMrceLinearSvm]
extends = RegionalBackboneFailureDegradedLinkAiMrceLinearSvm
description = "Sensitivity profile moderate: linear-SVM AI-MRCE runtime policy plus FRR-like repair routes"
**.degradationController.startTime = 100s
**.degradationController.endTime = 124s
**.degradationController.targetDelay = 35ms
**.degradationController.targetPacketErrorRate = 0.65
output-scalar-file = ../../results/regionalbackbone/failure_detection_degradation_sensitivity/${configname}-${runnumber}.sca
output-vector-file = ../../results/regionalbackbone/failure_detection_degradation_sensitivity/${configname}-${runnumber}.vec
eventlog-file = ../../results/regionalbackbone/failure_detection_degradation_sensitivity_debug/${configname}-${runnumber}.elog

[Config RegionalBackboneSensitivityModerateAiMrceShallowTree]
extends = RegionalBackboneFailureDegradedLinkAiMrceShallowTree
description = "Sensitivity profile moderate: shallow-tree AI-MRCE runtime policy plus FRR-like repair routes"
**.degradationController.startTime = 100s
**.degradationController.endTime = 124s
**.degradationController.targetDelay = 35ms
**.degradationController.targetPacketErrorRate = 0.65
output-scalar-file = ../../results/regionalbackbone/failure_detection_degradation_sensitivity/${configname}-${runnumber}.sca
output-vector-file = ../../results/regionalbackbone/failure_detection_degradation_sensitivity/${configname}-${runnumber}.vec
eventlog-file = ../../results/regionalbackbone/failure_detection_degradation_sensitivity_debug/${configname}-${runnumber}.elog

[Config RegionalBackboneSensitivityModerateHybrid]
extends = RegionalBackboneFailureDegradedLinkHybrid
description = "Sensitivity profile moderate: hybrid BFD-like safety net with default rule-based AI-MRCE"
**.degradationController.startTime = 100s
**.degradationController.endTime = 124s
**.degradationController.targetDelay = 35ms
**.degradationController.targetPacketErrorRate = 0.65
output-scalar-file = ../../results/regionalbackbone/failure_detection_degradation_sensitivity/${configname}-${runnumber}.sca
output-vector-file = ../../results/regionalbackbone/failure_detection_degradation_sensitivity/${configname}-${runnumber}.vec
eventlog-file = ../../results/regionalbackbone/failure_detection_degradation_sensitivity_debug/${configname}-${runnumber}.elog

[Config RegionalBackboneSensitivitySevereFastOspfOnly]
extends = RegionalBackboneFailureDegradedLinkOspfOnly
description = "Sensitivity profile severe_fast: OSPF-only baseline with short severe protected-span brownout"
**.degradationController.startTime = 112s
**.degradationController.endTime = 124s
**.degradationController.targetDelay = 45ms
**.degradationController.targetPacketErrorRate = 0.95
output-scalar-file = ../../results/regionalbackbone/failure_detection_degradation_sensitivity/${configname}-${runnumber}.sca
output-vector-file = ../../results/regionalbackbone/failure_detection_degradation_sensitivity/${configname}-${runnumber}.vec
eventlog-file = ../../results/regionalbackbone/failure_detection_degradation_sensitivity_debug/${configname}-${runnumber}.elog

[Config RegionalBackboneSensitivitySevereFastBfdLikeFrr]
extends = RegionalBackboneFailureDegradedLinkBfdLikeFrr
description = "Sensitivity profile severe_fast: BFD-like reactive comparator plus FRR-like repair routes"
**.degradationController.startTime = 112s
**.degradationController.endTime = 124s
**.degradationController.targetDelay = 45ms
**.degradationController.targetPacketErrorRate = 0.95
output-scalar-file = ../../results/regionalbackbone/failure_detection_degradation_sensitivity/${configname}-${runnumber}.sca
output-vector-file = ../../results/regionalbackbone/failure_detection_degradation_sensitivity/${configname}-${runnumber}.vec
eventlog-file = ../../results/regionalbackbone/failure_detection_degradation_sensitivity_debug/${configname}-${runnumber}.elog

[Config RegionalBackboneSensitivitySevereFastAiMrceRuleBased]
extends = RegionalBackboneFailureDegradedLinkAiMrceRuleBased
description = "Sensitivity profile severe_fast: rule-based AI-MRCE proactive trigger plus FRR-like repair routes"
**.degradationController.startTime = 112s
**.degradationController.endTime = 124s
**.degradationController.targetDelay = 45ms
**.degradationController.targetPacketErrorRate = 0.95
output-scalar-file = ../../results/regionalbackbone/failure_detection_degradation_sensitivity/${configname}-${runnumber}.sca
output-vector-file = ../../results/regionalbackbone/failure_detection_degradation_sensitivity/${configname}-${runnumber}.vec
eventlog-file = ../../results/regionalbackbone/failure_detection_degradation_sensitivity_debug/${configname}-${runnumber}.elog

[Config RegionalBackboneSensitivitySevereFastAiMrceLogReg]
extends = RegionalBackboneFailureDegradedLinkAiMrceLogReg
description = "Sensitivity profile severe_fast: logistic-regression AI-MRCE runtime policy plus FRR-like repair routes"
**.degradationController.startTime = 112s
**.degradationController.endTime = 124s
**.degradationController.targetDelay = 45ms
**.degradationController.targetPacketErrorRate = 0.95
output-scalar-file = ../../results/regionalbackbone/failure_detection_degradation_sensitivity/${configname}-${runnumber}.sca
output-vector-file = ../../results/regionalbackbone/failure_detection_degradation_sensitivity/${configname}-${runnumber}.vec
eventlog-file = ../../results/regionalbackbone/failure_detection_degradation_sensitivity_debug/${configname}-${runnumber}.elog

[Config RegionalBackboneSensitivitySevereFastAiMrceLinearSvm]
extends = RegionalBackboneFailureDegradedLinkAiMrceLinearSvm
description = "Sensitivity profile severe_fast: linear-SVM AI-MRCE runtime policy plus FRR-like repair routes"
**.degradationController.startTime = 112s
**.degradationController.endTime = 124s
**.degradationController.targetDelay = 45ms
**.degradationController.targetPacketErrorRate = 0.95
output-scalar-file = ../../results/regionalbackbone/failure_detection_degradation_sensitivity/${configname}-${runnumber}.sca
output-vector-file = ../../results/regionalbackbone/failure_detection_degradation_sensitivity/${configname}-${runnumber}.vec
eventlog-file = ../../results/regionalbackbone/failure_detection_degradation_sensitivity_debug/${configname}-${runnumber}.elog

[Config RegionalBackboneSensitivitySevereFastAiMrceShallowTree]
extends = RegionalBackboneFailureDegradedLinkAiMrceShallowTree
description = "Sensitivity profile severe_fast: shallow-tree AI-MRCE runtime policy plus FRR-like repair routes"
**.degradationController.startTime = 112s
**.degradationController.endTime = 124s
**.degradationController.targetDelay = 45ms
**.degradationController.targetPacketErrorRate = 0.95
output-scalar-file = ../../results/regionalbackbone/failure_detection_degradation_sensitivity/${configname}-${runnumber}.sca
output-vector-file = ../../results/regionalbackbone/failure_detection_degradation_sensitivity/${configname}-${runnumber}.vec
eventlog-file = ../../results/regionalbackbone/failure_detection_degradation_sensitivity_debug/${configname}-${runnumber}.elog

[Config RegionalBackboneSensitivitySevereFastHybrid]
extends = RegionalBackboneFailureDegradedLinkHybrid
description = "Sensitivity profile severe_fast: hybrid BFD-like safety net with default rule-based AI-MRCE"
**.degradationController.startTime = 112s
**.degradationController.endTime = 124s
**.degradationController.targetDelay = 45ms
**.degradationController.targetPacketErrorRate = 0.95
output-scalar-file = ../../results/regionalbackbone/failure_detection_degradation_sensitivity/${configname}-${runnumber}.sca
output-vector-file = ../../results/regionalbackbone/failure_detection_degradation_sensitivity/${configname}-${runnumber}.vec
eventlog-file = ../../results/regionalbackbone/failure_detection_degradation_sensitivity_debug/${configname}-${runnumber}.elog

[Config RegionalBackboneSensitivityMildSlowOspfOnlyCohort]
extends = RegionalBackboneSensitivityMildSlowOspfOnly
description = "Five-run wrapper for sensitivity profile mild_slow OSPF-only"
repeat = 5
seed-set = ${repetition}

[Config RegionalBackboneSensitivityMildSlowBfdLikeFrrCohort]
extends = RegionalBackboneSensitivityMildSlowBfdLikeFrr
description = "Five-run wrapper for sensitivity profile mild_slow BFD-like + FRR-like"
repeat = 5
seed-set = ${repetition}

[Config RegionalBackboneSensitivityMildSlowAiMrceRuleBasedCohort]
extends = RegionalBackboneSensitivityMildSlowAiMrceRuleBased
description = "Five-run wrapper for sensitivity profile mild_slow rule-based AI-MRCE"
repeat = 5
seed-set = ${repetition}

[Config RegionalBackboneSensitivityMildSlowAiMrceLogRegCohort]
extends = RegionalBackboneSensitivityMildSlowAiMrceLogReg
description = "Five-run wrapper for sensitivity profile mild_slow logistic-regression AI-MRCE"
repeat = 5
seed-set = ${repetition}

[Config RegionalBackboneSensitivityMildSlowAiMrceLinearSvmCohort]
extends = RegionalBackboneSensitivityMildSlowAiMrceLinearSvm
description = "Five-run wrapper for sensitivity profile mild_slow linear-SVM AI-MRCE"
repeat = 5