[General]
network = dissertationsim.simulations.regionalbackbone.RegionalBackbone
sim-time-limit = 60s
output-scalar-file = ../../results/regionalbackbone/eval/${configname}-${runnumber}.sca
output-vector-file = ../../results/regionalbackbone/eval/${configname}-${runnumber}.vec
eventlog-file = ../../results/regionalbackbone/debug/${configname}-${runnumber}.elog
record-eventlog = false

**.ospf.ospfConfig = xmldoc("ASConfig.xml")
**.scenarioManager.script = xml("<script/>")
*.enableDegradationController = false
*.enableCoreBottleneck = false
# AI-MRCE is opt-in per config so the baseline routing scenarios remain clean.
*.enableAiMrceController = false

**.hostA.numApps = 1
**.hostB.numApps = 1

**.hostA.app[0].typename = "UdpBasicApp"
**.hostA.app[0].destAddresses = "hostB"
**.hostA.app[0].destPort = 5000
**.hostA.app[0].messageLength = 512B
**.hostA.app[0].sendInterval = 1s
**.hostA.app[0].startTime = 20s

**.hostB.app[0].typename = "UdpSink"
**.hostB.app[0].localPort = 5000

# Keep this baseline skeleton focused on routing stability and delivery sanity.
**.hostA.app[0].packetSent.result-recording-modes = count
**.hostB.app[0].packetReceived.result-recording-modes = count
**.hostB.app[0].throughput.result-recording-modes = vector
**.hostB.app[0].endToEndDelay.result-recording-modes = vector
**.hostB.app[0].rcvdPkSeqNo.result-recording-modes = vector
**.ipv4.ip.packetDropNoRouteFound.result-recording-modes = count
**.ipv4.ip.packetDropInterfaceDown.result-recording-modes = count

[Config RegionalBackboneBaseline]
description = "Baseline routing validation for the medium-scale regional backbone topology"

[Config RegionalBackboneReactiveFailure]
description = "Reactive rerouting after coreNW-coreNE preferred backbone span fails at 40s"
sim-time-limit = 80s
**.scenarioManager.script = xml( \
        "<script>\n" + \
        "<at t='40s'><disconnect src-module='coreNW' src-gate='ethg$o[1]'/></at>\n" + \
        "<at t='40s'><disconnect src-module='coreNE' src-gate='ethg$o[0]'/></at>\n" + \
        "</script>")

[Config RegionalBackboneControlledDegradation]
description = "Staged intermittent brownout-style deterioration on coreNW-coreNE from 35s to 55s, followed by hard failure at 60s"
sim-time-limit = 90s
*.enableDegradationController = true
**.degradationController.firstInterfaceModule = "^.coreNW.eth[1]"
**.degradationController.secondInterfaceModule = "^.coreNE.eth[0]"
**.degradationController.profile = "stagedRealistic"
**.degradationController.startTime = 35s
**.degradationController.endTime = 55s
**.degradationController.updateInterval = 0.5s
**.degradationController.targetDelay = 35ms
**.degradationController.targetPacketErrorRate = 0.07
**.degradationController.appliedDelay.result-recording-modes = vector
**.degradationController.appliedPacketErrorRate.result-recording-modes = vector
**.scenarioManager.script = xml( \
        "<script>\n" + \
        "<at t='60s'><disconnect src-module='coreNW' src-gate='ethg$o[1]'/></at>\n" + \
        "<at t='60s'><disconnect src-module='coreNE' src-gate='ethg$o[0]'/></at>\n" + \
        "</script>")

[Config RegionalBackboneCongestionDegradation]
description = "Traffic-driven congestion on a 10 Mbps coreNW-coreNE bottleneck with staged UDP load and hard failure at 125s"
sim-time-limit = 150s
*.enableCoreBottleneck = true

**.hostA.numApps = 7
**.hostB.numApps = 7
**.hostA.app[*].typename = "UdpBasicApp"
**.hostA.app[*].destAddresses = "hostB"
**.hostB.app[*].typename = "UdpSink"

# Probe flow: low-rate telemetry traffic that should reveal delay and loss symptoms.
**.hostA.app[0].destPort = 5000
**.hostA.app[0].messageLength = 256B
**.hostA.app[0].sendInterval = 10ms
**.hostA.app[0].startTime = 20s

# Staged bulk flows. Each flow is about 2.4 Mbps, so aggregate demand crosses
# the 10 Mbps bottleneck gradually rather than immediately.
**.hostA.app[1].destPort = 5001
**.hostA.app[1].messageLength = 1200B
**.hostA.app[1].sendInterval = 4ms
**.hostA.app[1].startTime = 35s

**.hostA.app[2].destPort = 5002
**.hostA.app[2].messageLength = 1200B
**.hostA.app[2].sendInterval = 4ms
**.hostA.app[2].startTime = 50s

**.hostA.app[3].destPort = 5003
**.hostA.app[3].messageLength = 1200B
**.hostA.app[3].sendInterval = 4ms
**.hostA.app[3].startTime = 65s

**.hostA.app[4].destPort = 5004
**.hostA.app[4].messageLength = 1200B
**.hostA.app[4].sendInterval = 4ms
**.hostA.app[4].startTime = 80s

**.hostA.app[5].destPort = 5005
**.hostA.app[5].messageLength = 1200B
**.hostA.app[5].sendInterval = 4ms
**.hostA.app[5].startTime = 95s

**.hostA.app[6].destPort = 5006
**.hostA.app[6].messageLength = 1200B
**.hostA.app[6].sendInterval = 4ms
**.hostA.app[6].startTime = 110s

**.hostB.app[0].localPort = 5000
**.hostB.app[1].localPort = 5001
**.hostB.app[2].localPort = 5002
**.hostB.app[3].localPort = 5003
**.hostB.app[4].localPort = 5004
**.hostB.app[5].localPort = 5005
**.hostB.app[6].localPort = 5006

**.scenarioManager.script = xml( \
        "<script>\n" + \
        "<at t='125s'><disconnect src-module='coreNW' src-gate='ethg$o[1]'/></at>\n" + \
        "<at t='125s'><disconnect src-module='coreNE' src-gate='ethg$o[0]'/></at>\n" + \
        "</script>")

**.hostA.app[*].packetSent.result-recording-modes = count
**.hostB.app[*].packetReceived.result-recording-modes = count
**.hostB.app[*].throughput.result-recording-modes = vector
**.hostB.app[*].endToEndDelay.result-recording-modes = vector
**.hostB.app[*].rcvdPkSeqNo.result-recording-modes = vector

# Queue metrics on the forward preferred bottleneck interface coreNW -> coreNE.
# No custom AQM or vendor-specific buffer model is configured here.
# These queue metrics come from the default INET interface queue on the
# bottleneck NIC and should be interpreted as a simulator-default backlog
# approximation, not as a calibrated hardware queue model.
**.coreNW.eth[1].queue.queueLength.result-recording-modes = vector
**.coreNW.eth[1].queue.queueBitLength.result-recording-modes = vector
**.coreNW.eth[1].queue.queueingTime.result-recording-modes = vector

[Config RegionalBackboneAiMrceRuleBased]
extends = RegionalBackboneCongestionDegradation
description = "Runtime AI-MRCE rule-based baseline with proactive project-local repair-route activation before the scripted hard failure"
# This prototype keeps standard OSPF behavior intact. When sustained telemetry
# risk is observed, AI-MRCE activates explicit host-specific static repair
# routes along the southern corridor. This is a project-local FRR-like
# abstraction of a prearranged backup path, not a standards-compliant IP FRR
# implementation and not a modification of OSPF internals.
*.enableAiMrceController = true
**.aiMrceController.protectedQueueModule = "^.coreNW.eth[1].queue"
**.aiMrceController.probeReceiverModule = "^.hostB.app[0]"
**.aiMrceController.protectionAction = "localRepairStaticRoutes"
**.aiMrceController.localRepairRouteMetric = 1
**.aiMrceController.localRepairRouteSpecs = "^.accessA,^.accessA.eth[2],^.west2.eth[0],^.hostB.eth[0];^.west2,^.west2.eth[1],^.coreSW.eth[0],^.hostB.eth[0];^.coreSW,^.coreSW.eth[1],^.coreSE.eth[0],^.hostB.eth[0];^.coreSE,^.coreSE.eth[3],^.east2.eth[0],^.hostB.eth[0];^.east2,^.east2.eth[1],^.accessB.eth[1],^.hostB.eth[0];^.accessB,^.accessB.eth[1],^.east2.eth[1],^.hostA.eth[0];^.east2,^.east2.eth[0],^.coreSE.eth[3],^.hostA.eth[0];^.coreSE,^.coreSE.eth[0],^.coreSW.eth[1],^.hostA.eth[0];^.coreSW,^.coreSW.eth[0],^.west2.eth[1],^.hostA.eth[0];^.west2,^.west2.eth[0],^.accessA.eth[2],^.hostA.eth[0]"
**.aiMrceController.firstInterfaceModule = "^.coreNW.eth[1]"
**.aiMrceController.secondInterfaceModule = "^.coreNE.eth[0]"
**.aiMrceController.decisionMode = "ruleBased"
**.aiMrceController.startTime = 20s
**.aiMrceController.evaluationInterval = 1s
**.aiMrceController.activationConsecutiveCycles = 3
**.aiMrceController.probeSendInterval = 10ms
**.aiMrceController.probePacketLength = 256B
**.aiMrceController.queueLengthThresholdPk = 40
**.aiMrceController.delayThreshold = 20ms
**.aiMrceController.throughputFloorRatio = 0.85
**.aiMrceController.packetCountFloorRatio = 0.85
**.aiMrceController.ruleRiskThreshold = 0.60

[Config RegionalBackboneAiMrceLogReg]
extends = RegionalBackboneAiMrceRuleBased
description = "Runtime AI-MRCE prototype with an exported logistic-regression runtime model and proactive local repair-route activation before the scripted hard failure"
# The runtime model file is a deployment artifact exported offline from
# scenario-phase supervision; it is not a substitute for offline evaluation.
**.aiMrceController.decisionMode = "logisticRegression"
**.aiMrceController.runtimeModelFile = "aimrce_runtime_logreg.csv"

[Config RegionalBackboneAiMrceLinearSvm]
extends = RegionalBackboneAiMrceRuleBased
description = "Runtime AI-MRCE prototype with an exported linear-SVM runtime model and proactive local repair-route activation before the scripted hard failure"
# This linear-margin candidate remains a compact project-local deployment
# artifact. Its bounded decision score is a conservative monotonic transform of
# the learned margin, not a calibrated production-grade risk probability.
**.aiMrceController.decisionMode = "linearSvm"
**.aiMrceController.runtimeModelFile = "aimrce_runtime_linsvm.csv"

[Config RegionalBackboneAiMrceShallowTree]
extends = RegionalBackboneAiMrceRuleBased
description = "Runtime AI-MRCE prototype with an exported shallow-tree runtime model and proactive local repair-route activation before the scripted hard failure"
# This candidate keeps the runtime policy auditable: the deployment artifact is
# a small explicit tree over the same observable telemetry features.
**.aiMrceController.decisionMode = "shallowTree"
**.aiMrceController.runtimeModelFile = "aimrce_runtime_shallow_tree.csv"

# Dedicated multi-run wrappers for the regional congestion protection cohort.
# These keep the existing single-run configs intact while providing a separate,
# auditable output path for repeated practical-comparison batches.

[Config RegionalBackboneCongestionDegradationCohort]
extends = RegionalBackboneCongestionDegradation
description = "Five-run reactive congestion baseline wrapper for the regional congestion protection cohort"
repeat = 5
seed-set = ${repetition}
output-scalar-file = ../../results/regionalbackbone/congestion_protection_cohort/${configname}-${runnumber}.sca
output-vector-file = ../../results/regionalbackbone/congestion_protection_cohort/${configname}-${runnumber}.vec
eventlog-file = ../../results/regionalbackbone/congestion_protection_cohort_debug/${configname}-${runnumber}.elog
record-eventlog = false

[Config RegionalBackboneAiMrceRuleBasedCohort]
extends = RegionalBackboneAiMrceRuleBased
description = "Five-run rule-based AI-MRCE wrapper for the regional congestion protection cohort"
repeat = 5
seed-set = ${repetition}
output-scalar-file = ../../results/regionalbackbone/congestion_protection_cohort/${configname}-${runnumber}.sca
output-vector-file = ../../results/regionalbackbone/congestion_protection_cohort/${configname}-${runnumber}.vec
eventlog-file = ../../results/regionalbackbone/congestion_protection_cohort_debug/${configname}-${runnumber}.elog
record-eventlog = false

[Config RegionalBackboneAiMrceLogRegCohort]
extends = RegionalBackboneAiMrceLogReg
description = "Five-run logistic-regression AI-MRCE wrapper for the regional congestion protection cohort"
repeat = 5
seed-set = ${repetition}
output-scalar-file = ../../results/regionalbackbone/congestion_protection_cohort/${configname}-${runnumber}.sca
output-vector-file = ../../results/regionalbackbone/congestion_protection_cohort/${configname}-${runnumber}.vec
eventlog-file = ../../results/regionalbackbone/congestion_protection_cohort_debug/${configname}-${runnumber}.elog
record-eventlog = false

[Config RegionalBackboneAiMrceLinearSvmCohort]
extends = RegionalBackboneAiMrceLinearSvm
description = "Five-run linear-SVM AI-MRCE wrapper for the regional congestion protection cohort"
repeat = 5
seed-set = ${repetition}
output-scalar-file = ../../results/regionalbackbone/congestion_protection_cohort/${configname}-${runnumber}.sca
output-vector-file = ../../results/regionalbackbone/congestion_protection_cohort/${configname}-${runnumber}.vec
eventlog-file = ../../results/regionalbackbone/congestion_protection_cohort_debug/${configname}-${runnumber}.elog
record-eventlog = false

[Config RegionalBackboneAiMrceShallowTreeCohort]
extends = RegionalBackboneAiMrceShallowTree
description = "Five-run shallow-tree AI-MRCE wrapper for the regional congestion protection cohort"
repeat = 5
seed-set = ${repetition}
output-scalar-file = ../../results/regionalbackbone/congestion_protection_cohort/${configname}-${runnumber}.sca
output-vector-file = ../../results/regionalbackbone/congestion_protection_cohort/${configname}-${runnumber}.vec
eventlog-file = ../../results/regionalbackbone/congestion_protection_cohort_debug/${configname}-${runnumber}.elog
record-eventlog = false

# Focused mixed UDP/TCP cohort. This branch is intentionally separate from the
# existing UDP-only congestion cohort so old single-run behavior and exported
# runtime-model assumptions stay reproducible. TCP behavior is generated with
# standard INET TCP request/response applications and is evaluated through
# receiver-side useful-goodput proxies, not custom TCP instrumentation.

[Config RegionalBackboneMixedTrafficCongestionDegradation]
description = "Mixed UDP/TCP traffic-driven congestion baseline on the regional backbone with hard failure at 125s"
sim-time-limit = 150s
*.enableCoreBottleneck = true

# Keep this focused cohort auditable and tractable. INET exposes many default
# statistics on every protocol/interface module; suppress broad lower-layer
# internals while leaving application and protected-bottleneck queue metrics
# explicitly enabled below.
**.ethernet.*.result-recording-modes =
**.lo[*].**.result-recording-modes =
**.eth[*].mac.**.result-recording-modes =
**.ipv4.**.result-recording-modes =
**.udp.**.result-recording-modes =
**.tcp.**.result-recording-modes =
**.hostA.eth[*].queue.*.result-recording-modes =
**.hostB.eth[*].queue.*.result-recording-modes =
**.accessA.eth[*].queue.*.result-recording-modes =
**.accessB.eth[*].queue.*.result-recording-modes =
**.west*.eth[*].queue.*.result-recording-modes =
**.east*.eth[*].queue.*.result-recording-modes =
**.coreNE.eth[*].queue.*.result-recording-modes =
**.coreSW.eth[*].queue.*.result-recording-modes =
**.coreSE.eth[*].queue.*.result-recording-modes =
**.coreC*.eth[*].queue.*.result-recording-modes =
**.coreNW.eth[0].queue.*.result-recording-modes =
**.coreNW.eth[2].queue.*.result-recording-modes =
**.coreNW.eth[3].queue.*.result-recording-modes =

**.hostA.numApps = 5
**.hostB.numApps = 5

# UDP probe flow used by AI-MRCE telemetry and legacy continuity metrics.
**.hostA.app[0].typename = "UdpBasicApp"
**.hostA.app[0].destAddresses = "hostB"
**.hostA.app[0].destPort = 5000
**.hostA.app[0].messageLength = 256B
**.hostA.app[0].sendInterval = 10ms
**.hostA.app[0].startTime = 20s
**.hostB.app[0].typename = "UdpSink"
**.hostB.app[0].localPort = 5000

# Two staged UDP load flows preserve packet-continuity/loss observability while
# leaving part of the bottleneck pressure to TCP. These are synthetic offered
# loads, not calibrated application traces.
**.hostA.app[1].typename = "UdpBasicApp"
**.hostA.app[1].destAddresses = "hostB"
**.hostA.app[1].destPort = 5001
**.hostA.app[1].messageLength = 1200B
**.hostA.app[1].sendInterval = 4ms
**.hostA.app[1].startTime = 35s
**.hostB.app[1].typename = "UdpSink"
**.hostB.app[1].localPort = 5001

**.hostA.app[2].typename = "UdpBasicApp"
**.hostA.app[2].destAddresses = "hostB"
**.hostA.app[2].destPort = 5002
**.hostA.app[2].messageLength = 1200B
**.hostA.app[2].sendInterval = 4ms
**.hostA.app[2].startTime = 65s
**.hostB.app[2].typename = "UdpSink"
**.hostB.app[2].localPort = 5002

# Repeated TCP request/response sessions approximate transport-layer service
# pressure without creating an unbounded trace volume. The request payload is
# intentionally the larger direction so TCP contributes to the same forward
# hostA -> hostB protected corridor monitored by AI-MRCE. Replies are smaller
# but still large enough to make the client-side received-byte vector a useful
# endpoint service proxy; direct TCP retransmission counters are deliberately
# not required for this increment.
**.hostA.app[3].typename = "TcpBasicClientApp"
**.hostA.app[3].localAddress = ""
**.hostA.app[3].localPort = -1
**.hostA.app[3].connectAddress = "hostB"
**.hostA.app[3].connectPort = 6003
**.hostA.app[3].startTime = 45s
**.hostA.app[3].stopTime = -1s
**.hostA.app[3].numRequestsPerSession = 1
**.hostA.app[3].requestLength = 512KiB
**.hostA.app[3].replyLength = 128KiB
**.hostA.app[3].thinkTime = 0s
**.hostA.app[3].idleInterval = 500ms
**.hostA.app[3].reconnectInterval = 1s
**.hostB.app[3].typename = "TcpGenericServerApp"
**.hostB.app[3].localAddress = ""
**.hostB.app[3].localPort = 6003

**.hostA.app[4].typename = "TcpBasicClientApp"
**.hostA.app[4].localAddress = ""
**.hostA.app[4].localPort = -1
**.hostA.app[4].connectAddress = "hostB"
**.hostA.app[4].connectPort = 6004
**.hostA.app[4].startTime = 75s
**.hostA.app[4].stopTime = -1s
**.hostA.app[4].numRequestsPerSession = 1
**.hostA.app[4].requestLength = 512KiB
**.hostA.app[4].replyLength = 128KiB
**.hostA.app[4].thinkTime = 0s
**.hostA.app[4].idleInterval = 500ms
**.hostA.app[4].reconnectInterval = 1s
**.hostB.app[4].typename = "TcpGenericServerApp"
**.hostB.app[4].localAddress = ""
**.hostB.app[4].localPort = 6004

**.scenarioManager.script = xml( \
        "<script>\n" + \
        "<at t='125s'><disconnect src-module='coreNW' src-gate='ethg$o[1]'/></at>\n" + \
        "<at t='125s'><disconnect src-module='coreNE' src-gate='ethg$o[0]'/></at>\n" + \
        "</script>")

**.hostA.app[*].packetSent.result-recording-modes = count
**.hostB.app[*].packetReceived.result-recording-modes = count
**.hostB.app[3].packetReceived.result-recording-modes = count,sum(packetBytes),vector(packetBytes)
**.hostB.app[4].packetReceived.result-recording-modes = count,sum(packetBytes),vector(packetBytes)
**.hostB.app[*].throughput.result-recording-modes = vector
**.hostB.app[*].endToEndDelay.result-recording-modes = vector
**.hostB.app[*].rcvdPkSeqNo.result-recording-modes = vector
**.hostA.app[*].packetReceived.result-recording-modes = count,sum(packetBytes),vector(packetBytes)
**.hostA.app[*].endToEndDelay.result-recording-modes = vector

**.coreNW.eth[1].queue.queueLength.result-recording-modes = vector
**.coreNW.eth[1].queue.queueBitLength.result-recording-modes = vector
**.coreNW.eth[1].queue.queueingTime.result-recording-modes = vector

[Config RegionalBackboneAiMrceRuleBasedMixedTraffic]
extends = RegionalBackboneMixedTrafficCongestionDegradation
description = "Mixed UDP/TCP traffic with rule-based AI-MRCE protection on the regional congestion branch"
*.enableAiMrceController = true
**.aiMrceController.protectedQueueModule = "^.coreNW.eth[1].queue"
**.aiMrceController.probeReceiverModule = "^.hostB.app[0]"
**.aiMrceController.protectionAction = "localRepairStaticRoutes"
**.aiMrceController.localRepairRouteMetric = 1
**.aiMrceController.localRepairRouteSpecs = "^.accessA,^.accessA.eth[2],^.west2.eth[0],^.hostB.eth[0];^.west2,^.west2.eth[1],^.coreSW.eth[0],^.hostB.eth[0];^.coreSW,^.coreSW.eth[1],^.coreSE.eth[0],^.hostB.eth[0];^.coreSE,^.coreSE.eth[3],^.east2.eth[0],^.hostB.eth[0];^.east2,^.east2.eth[1],^.accessB.eth[1],^.hostB.eth[0];^.accessB,^.accessB.eth[1],^.east2.eth[1],^.hostA.eth[0];^.east2,^.east2.eth[0],^.coreSE.eth[3],^.hostA.eth[0];^.coreSE,^.coreSE.eth[0],^.coreSW.eth[1],^.hostA.eth[0];^.coreSW,^.coreSW.eth[0],^.west2.eth[1],^.hostA.eth[0];^.west2,^.west2.eth[0],^.accessA.eth[2],^.hostA.eth[0]"
**.aiMrceController.firstInterfaceModule = "^.coreNW.eth[1]"
**.aiMrceController.secondInterfaceModule = "^.coreNE.eth[0]"
**.aiMrceController.decisionMode = "ruleBased"
**.aiMrceController.startTime = 20s
**.aiMrceController.evaluationInterval = 1s
**.aiMrceController.activationConsecutiveCycles = 3
**.aiMrceController.probeSendInterval = 10ms
**.aiMrceController.probePacketLength = 256B
**.aiMrceController.queueLengthThresholdPk = 40
**.aiMrceController.delayThreshold = 20ms
**.aiMrceController.throughputFloorRatio = 0.85
**.aiMrceController.packetCountFloorRatio = 0.85
**.aiMrceController.ruleRiskThreshold = 0.60

[Config RegionalBackboneAiMrceLogRegMixedTraffic]
extends = RegionalBackboneAiMrceRuleBasedMixedTraffic
description = "Mixed UDP/TCP traffic with exported logistic-regression AI-MRCE protection on the regional congestion branch"
**.aiMrceController.decisionMode = "logisticRegression"
**.aiMrceController.runtimeModelFile = "aimrce_runtime_logreg.csv"

[Config RegionalBackboneMixedTrafficCongestionDegradationCohort]
extends = RegionalBackboneMixedTrafficCongestionDegradation
description = "Five-run mixed UDP/TCP reactive congestion baseline wrapper"
**.hostA.app[4].startTime = ${tcpSecondStart=73s,74s,75s,76s,77s}
output-scalar-file = ../../results/regionalbackbone/mixed_traffic_protection_cohort/${configname}-${runnumber}.sca
output-vector-file = ../../results/regionalbackbone/mixed_traffic_protection_cohort/${configname}-${runnumber}.vec
eventlog-file = ../../results/regionalbackbone/mixed_traffic_protection_cohort_debug/${configname}-${runnumber}.elog
record-eventlog = false

[Config RegionalBackboneAiMrceRuleBasedMixedTrafficCohort]
extends = RegionalBackboneAiMrceRuleBasedMixedTraffic
description = "Five-run mixed UDP/TCP rule-based AI-MRCE wrapper"
**.hostA.app[4].startTime = ${tcpSecondStart=73s,74s,75s,76s,77s}
output-scalar-file = ../../results/regionalbackbone/mixed_traffic_protection_cohort/${configname}-${runnumber}.sca
output-vector-file = ../../results/regionalbackbone/mixed_traffic_protection_cohort/${configname}-${runnumber}.vec
eventlog-file = ../../results/regionalbackbone/mixed_traffic_protection_cohort_debug/${configname}-${runnumber}.elog
record-eventlog = false

[Config RegionalBackboneAiMrceLogRegMixedTrafficCohort]
extends = RegionalBackboneAiMrceLogRegMixedTraffic
description = "Five-run mixed UDP/TCP logistic-regression AI-MRCE wrapper"
**.hostA.app[4].startTime = ${tcpSecondStart=73s,74s,75s,76s,77s}
output-scalar-file = ../../results/regionalbackbone/mixed_traffic_protection_cohort/${configname}-${runnumber}.sca
output-vector-file = ../../results/regionalbackbone/mixed_traffic_protection_cohort/${configname}-${runnumber}.vec
eventlog-file = ../../results/regionalbackbone/mixed_traffic_protection_cohort_debug/${configname}-${runnumber}.elog
record-eventlog = false

[Config RegionalBackboneBaselineDebug]
extends = RegionalBackboneBaseline
description = "Regional backbone baseline with eventlog recording for manual path inspection"
output-scalar-file = ../../results/regionalbackbone/debug/${configname}-${runnumber}.sca
output-vector-file = ../../results/regionalbackbone/debug/${configname}-${runnumber}.vec
record-eventlog = true

[Config RegionalBackboneReactiveFailureDebug]
extends = RegionalBackboneReactiveFailure
description = "Regional backbone reactive failure with eventlog recording for manual reroute inspection"
output-scalar-file = ../../results/regionalbackbone/debug/${configname}-${runnumber}.sca
output-vector-file = ../../results/regionalbackbone/debug/${configname}-${runnumber}.vec
record-eventlog = true

[Config RegionalBackboneControlledDegradationDebug]
extends = RegionalBackboneControlledDegradation
description = "Regional backbone controlled degradation with eventlog recording for manual inspection"
output-scalar-file = ../../results/regionalbackbone/debug/${configname}-${runnumber}.sca
output-vector-file = ../../results/regionalbackbone/debug/${configname}-${runnumber}.vec
record-eventlog = true

[Config RegionalBackboneCongestionDegradationDebug]
extends = RegionalBackboneCongestionDegradation
description = "Regional backbone traffic-driven congestion with eventlog recording for manual inspection"
output-scalar-file = ../../results/regionalbackbone/debug/${configname}-${runnumber}.sca
output-vector-file = ../../results/regionalbackbone/debug/${configname}-${runnumber}.vec
record-eventlog = true

[Config RegionalBackboneAiMrceRuleBasedDebug]
extends = RegionalBackboneAiMrceRuleBased
description = "Regional backbone AI-MRCE rule-based prototype with eventlog recording for manual inspection"
output-scalar-file = ../../results/regionalbackbone/debug/${configname}-${runnumber}.sca
output-vector-file = ../../results/regionalbackbone/debug/${configname}-${runnumber}.vec
record-eventlog = true

[Config RegionalBackboneAiMrceLogRegDebug]
extends = RegionalBackboneAiMrceLogReg
description = "Regional backbone AI-MRCE logistic-regression prototype with eventlog recording for manual inspection"
output-scalar-file = ../../results/regionalbackbone/debug/${configname}-${runnumber}.sca
output-vector-file = ../../results/regionalbackbone/debug/${configname}-${runnumber}.vec
record-eventlog = true

[Config RegionalBackboneAiMrceLinearSvmDebug]
extends = RegionalBackboneAiMrceLinearSvm
description = "Regional backbone AI-MRCE linear-SVM prototype with eventlog recording for manual inspection"
output-scalar-file = ../../results/regionalbackbone/debug/${configname}-${runnumber}.sca
output-vector-file = ../../results/regionalbackbone/debug/${configname}-${runnumber}.vec
record-eventlog = true

[Config RegionalBackboneAiMrceShallowTreeDebug]
extends = RegionalBackboneAiMrceShallowTree
description = "Regional backbone AI-MRCE shallow-tree prototype with eventlog recording for manual inspection"
output-scalar-file = ../../results/regionalbackbone/debug/${configname}-${runnumber}.sca
output-vector-file = ../../results/regionalbackbone/debug/${configname}-${runnumber}.vec
record-eventlog = true
